tests/data/state_estimation/line-power-sensor/input.json
{
  "version": "1.0",
  "type": "input",
  "is_batch": false,
  "attributes": {},
  "data": {
    "node": [
      {
        "id": 1,
        "u_rated": 10000.0
      },
      {
        "id": 2,
        "u_rated": 10000.0
      }
    ],
    "line": [
      {
        "id": 3,
        "from_node": 1,
        "to_node": 2,
        "from_status": 1,
        "to_status": 1,
        "r1": 0.01,
        "x1": 0.02,
        "c1": 0.0,
        "tan1": 0.0,
        "i_n": 1000.0
      }
    ],
    "source": [
      {
        "id": 4,
        "node": 1,
        "status": 1,
        "u_ref": 1.0
      }
    ],
    "shunt": [
      {
        "id": 6,
        "node": 2,
        "status": 1,
        "g1": 1.8e-05,
        "b1": -1.8e-06
      }
    ],
    "sym_voltage_sensor": [
      {
        "id": 11,
        "measured_object": 1,
        "u_sigma": 100.0,
        "u_measured": 10000.0,
        "u_angle_measured": 0.0
      }
    ],
    "sym_power_sensor": [
      {
        "id": 16,
        "measured_object": 6,
        "measured_terminal_type": 3,
        "power_sigma": 100.0,
        "p_measured": 1800.0,
        "q_measured": 180.0
      },
      {
        "id": 17,
        "measured_object": 3,
        "measured_terminal_type": 0,
        "power_sigma": 100.0,
        "p_measured": 1800.0,
        "q_measured": 180.0
      },
      {
        "id": 18,
        "measured_object": 3,
        "measured_terminal_type": 1,
        "power_sigma": 100.0,
        "p_measured": -1800.0,
        "q_measured": -180.0
      }
    ]
  }
}
